cdfs/ieee57cdf.txt
TAPE
 08/25/93 UW ARCHIVE            100.0 1961 W IEEE 57-BUS TEST SYSTEM
BUS DATA FOLLOWS                     57 ITEMS
   1 Kanawha   V1  1  1  3  1.040    0.0     55.0     17.0    128.9   -16.1     0.0  1.040     0.0     0.0     0.0     0.0    1    1
   2 Turner    V1  1  1  2  1.010  -1.18      3.0     88.0      0.0    -0.8     0.0  1.010    50.0   -17.0     0.0     0.0    2    2
   3 Logan     V1  1  1  2  0.985  -5.97     41.0     21.0     40.0    -1.0     0.0  0.985    60.0   -10.0     0.0     0.0    3    3
   4 Sprigg    V1  1  1  0  0.981  -7.32      0.0      0.0      0.0     0.0     0.0    0.0     0.0     0.0     0.0     0.0    0    4
   5 Bus 5     V1  1  1  0  0.976  -8.52     13.0      4.0      0.0     0.0     0.0    0.0     0.0     0.0     0.0     0.0    0    5
   6 Beaver Ck V1  1  1  2  0.980  -8.65     75.0      2.0      0.0     0.8     0.0  0.980    25.0    -8.0     0.0     0.0    6    6
   7 Bus 7     V1  1  1  0  0.984  -7.58      0.0      0.0      0.0     0.0     0.0    0.0     0.0     0.0     0.0     0.0    0    7
   8 Clinch Rv V1  1  1  2  1.005  -4.45    150.0     22.0    450.0    62.1     0.0  1.005   200.0  -140.0     0.0     0.0    8    8
   9 Saltville V1  1  1  2  0.980  -9.56    121.0     26.0      0.0     2.2     0.0  0.980     9.0    -3.0     0.0     0.0    9    9
  10 Bus 10    V1  1  1  0  0.986 -11.43      5.0      2.0      0.0     0.0     0.0    0.0     0.0     0.0     0.0     0.0    0   10
  11 Tazewell  V1  1  1  0  0.974 -10.17      0.0      0.0      0.0     0.0     0.0    0.0     0.0     0.0     0.0     0.0    0   11
  12 Glen Lyn  V1  1  1  2  1.015 -10.46    377.0     24.0    310.0   128.5     0.0  1.015   155.0  -150.0     0.0     0.0   12   12
  13 Bus 13    V1  1  1  0  0.979  -9.79     18.0      2.3      0.0     0.0     0.0    0.0     0.0     0.0     0.0     0.0    0   13
  14 Bus 14    V1  1  1  0  0.970  -9.33     10.5      5.3      0.0     0.0     0.0    0.0     0.0     0.0     0.0     0.0    0   14
  15 Bus 15    V1  1  1  0  0.988  -7.18     22.0      5.0      0.0     0.0     0.0    0.0     0.0     0.0     0.0     0.0    0   15
  16 Bus 16    V1  1  1  0  1.013  -8.85     43.0      3.0      0.0     0.0     0.0    0.0     0.0     0.0     0.0     0.0    0   16
  17 Bus 17    V1  1  1  0  1.017  -5.39     42.0      8.0      0.0     0.0     0.0    0.0     0.0     0.0     0.0     0.0    0   17
  18 Sprigg    V2  1  1  0  1.001 -11.71     27.2      9.8      0.0     0.0     0.0    0.0     0.0     0.0     0.0     0.1    0   18
  19 Bus 19    V2  1  1  0  0.970 -13.20      3.3      0.6      0.0     0.0     0.0    0.0     0.0     0.0     0.0     0.0    0   19
  20 Bus 20    V2  1  1  0  0.964 -13.41      2.3      1.0      0.0     0.0     0.0    0.0     0.0     0.0     0.0     0.0    0   20
  21 Bus 21    V3  1  1  0  1.008 -12.89      0.0      0.0      0.0     0.0     0.0    0.0     0.0     0.0     0.0     0.0    0   21
  22 Bus 22    V3  1  1  0  1.010 -12.84      0.0      0.0      0.0     0.0     0.0    0.0     0.0     0.0     0.0     0.0    0   22
  23 Bus 23    V3  1  1  0  1.008 -12.91      6.3      2.1      0.0     0.0     0.0    0.0     0.0     0.0     0.0     0.0    0   23
  24 Bus 24    V3  1  1  0  0.999 -13.25      0.0      0.0      0.0     0.0     0.0    0.0     0.0     0.0     0.0     0.0    0   24
  25 Bus 25    V4  1  1  0  0.982 -18.13      6.3      3.2      0.0     0.0     0.0    0.0     0.0     0.0     0.0   0.059    0   25
  26 Bus 26    V5  1  1  0  0.959 -12.95      0.0      0.0      0.0     0.0     0.0    0.0     0.0     0.0     0.0     0.0    0   26
  27 Bus 27    V5  1  1  0  0.982 -11.48      9.3      0.5      0.0     0.0     0.0    0.0     0.0     0.0     0.0     0.0    0   27
  28 Bus 28    V5  1  1  0  0.997 -10.45      4.6      2.3      0.0     0.0     0.0    0.0     0.0     0.0     0.0     0.0    0   28
  29 Bus 29    V5  1  1  0  1.010  -9.75     17.0      2.6      0.0     0.0     0.0    0.0     0.0     0.0     0.0     0.0    0   29
  30 Bus 30    V4  1  1  0  0.962 -18.68      3.6      1.8      0.0     0.0     0.0    0.0     0.0     0.0     0.0     0.0    0   30
  31 Bus 31    V4  1  1  0  0.936 -19.34      5.8      2.9      0.0     0.0     0.0    0.0     0.0     0.0     0.0     0.0    0   31
  32 Bus 32    V4  1  1  0  0.949 -18.46      1.6      0.8      0.0     0.0     0.0    0.0     0.0     0.0     0.0     0.0    0   32
  33 Bus 33    V4  1  1  0  0.947 -18.50      3.8      1.9      0.0     0.0     0.0    0.0     0.0     0.0     0.0     0.0    0   33
  34 Bus 34    V3  1  1  0  0.959 -14.10      0.0      0.0      0.0     0.0     0.0    0.0     0.0     0.0     0.0     0.0    0   34
  35 Bus 35    V3  1  1  0  0.966 -13.86      6.0      3.0      0.0     0.0     0.0    0.0     0.0     0.0     0.0     0.0    0   35
  36 Bus 36    V3  1  1  0  0.976 -13.59      0.0      0.0      0.0     0.0     0.0    0.0     0.0     0.0     0.0     0.0    0   36
  37 Bus 37    V3  1  1  0  0.985 -13.41      0.0      0.0      0.0     0.0     0.0    0.0     0.0     0.0     0.0     0.0    0   37
  38 Bus 38    V3  1  1  0  1.013 -12.71     14.0      7.0      0.0     0.0     0.0    0.0     0.0     0.0     0.0     0.0    0   38
  39 Bus 39    V3  1  1  0  0.983 -13.46      0.0      0.0      0.0     0.0     0.0    0.0     0.0     0.0     0.0     0.0    0   39
  40 Bus 40    V3  1  1  0  0.973 -13.62      0.0      0.0      0.0     0.0     0.0    0.0     0.0     0.0     0.0     0.0    0   40
  41 Tazewell  V6  1  1  0  0.996 -14.05      6.3      3.0      0.0     0.0     0.0    0.0     0.0     0.0     0.0     0.0    0   41
  42 Bus 42    V6  1  1  0  0.966 -15.50      7.1      4.4      0.0     0.0     0.0    0.0     0.0     0.0     0.0     0.0    0   42
  43 Tazewell  V7  1  1  0  1.010 -11.33      2.0      1.0      0.0     0.0     0.0    0.0     0.0     0.0     0.0     0.0    0   43
  44 Bus 44    V3  1  1  0  1.017 -11.86     12.0      1.8      0.0     0.0     0.0    0.0     0.0     0.0     0.0     0.0    0   44
  45 Bus 45    V3  1  1  0  1.036  -9.25      0.0      0.0      0.0     0.0     0.0    0.0     0.0     0.0     0.0     0.0    0   45
  46 Bus 46    V3  1  1  0  1.050 -11.89      0.0      0.0      0.0     0.0     0.0    0.0     0.0     0.0     0.0     0.0    0   46
  47 Bus 47    V3  1  1  0  1.033 -12.49     29.7     11.6      0.0     0.0     0.0    0.0     0.0     0.0     0.0     0.0    0   47
  48 Bus 48    V3  1  1  0  1.027 -12.59      0.0      0.0      0.0     0.0     0.0    0.0     0.0     0.0     0.0     0.0    0   48
  49 Bus 49    V3  1  1  0  1.036 -12.92     18.0      8.5      0.0     0.0     0.0    0.0     0.0     0.0     0.0     0.0    0   49
  50 Bus 50    V3  1  1  0  1.023 -13.39     21.0     10.5      0.0     0.0     0.0    0.0     0.0     0.0     0.0     0.0    0   50
  51 Bus 51    V3  1  1  0  1.052 -12.52     18.0      5.3      0.0     0.0     0.0    0.0     0.0     0.0     0.0     0.0    0   51
  52 Bus 52    V5  1  1  0  0.980 -11.47      4.9      2.2      0.0     0.0     0.0    0.0     0.0     0.0     0.0     0.0    0   52
  53 Bus 53    V5  1  1  0  0.971 -12.23     20.0     10.0      0.0     0.0     0.0    0.0     0.0     0.0     0.0   0.063    0   53
  54 Bus 54    V5  1  1  0  0.996 -11.69      4.1      1.4      0.0     0.0     0.0    0.0     0.0     0.0     0.0     0.0    0   54
  55 Saltville V5  1  1  0  1.031 -10.78      6.8      3.4      0.0     0.0     0.0    0.0     0.0     0.0     0.0     0.0    0   55
  56 Bus 56    V6  1  1  0  0.968 -16.04      7.6      2.2      0.0     0.0     0.0    0.0     0.0     0.0     0.0     0.0    0   56
  57 Bus 57    V6  1  1  0  0.965 -16.56      6.7      2.0      0.0     0.0     0.0    0.0     0.0     0.0     0.0     0.0    0   57
-999
BRANCH DATA FOLLOWS                  80 ITEMS
   1    2  1  1 1 0    0.0083     0.028     0.129     0     0     0    0 0     0.0     0.0    0.0    0.0    0.0     0.0    0.0     1
   2    3  1  1 1 0    0.0298     0.085    0.0818     0     0     0    0 0     0.0     0.0    0.0    0.0    0.0     0.0    0.0     2
   3    4  1  1 1 0    0.0112    0.0366     0.038     0     0     0    0 0     0.0     0.0    0.0    0.0    0.0     0.0    0.0     3
   4    5  1  1 1 0    0.0625     0.132    0.0258     0     0     0    0 0     0.0     0.0    0.0    0.0    0.0     0.0    0.0     4
   4    6  1  1 1 0     0.043     0.148    0.0348     0     0     0    0 0     0.0     0.0    0.0    0.0    0.0     0.0    0.0     5
   6    7  1  1 1 0      0.02     0.102    0.0276     0     0     0    0 0     0.0     0.0    0.0    0.0    0.0     0.0    0.0     6
   6    8  1  1 1 0    0.0339     0.173     0.047     0     0     0    0 0     0.0     0.0    0.0    0.0    0.0     0.0    0.0     7
   8    9  1  1 1 0    0.0099    0.0505    0.0548     0     0     0    0 0     0.0     0.0    0.0    0.0    0.0     0.0    0.0     8
   9   10  1  1 1 0    0.0369    0.1679     0.044     0     0     0    0 0     0.0     0.0    0.0    0.0    0.0     0.0    0.0     9
   9   11  1  1 1 0    0.0258    0.0848    0.0218     0     0     0    0 0     0.0     0.0    0.0    0.0    0.0     0.0    0.0    10
   9   12  1  1 1 0    0.0648     0.295    0.0772     0     0     0    0 0     0.0     0.0    0.0    0.0    0.0     0.0    0.0    11
   9   13  1  1 1 0    0.0481     0.158    0.0406     0     0     0    0 0     0.0     0.0    0.0    0.0    0.0     0.0    0.0    12
  13   14  1  1 1 0    0.0132    0.0434     0.011     0     0     0    0 0     0.0     0.0    0.0    0.0    0.0     0.0    0.0    13
  13   15  1  1 1 0    0.0269    0.0869     0.023     0     0     0    0 0     0.0     0.0    0.0    0.0    0.0     0.0    0.0    14
   1   15  1  1 1 0    0.0178     0.091    0.0988     0     0     0    0 0     0.0     0.0    0.0    0.0    0.0     0.0    0.0    15
   1   16  1  1 1 0    0.0454     0.206    0.0546     0     0     0    0 0     0.0     0.0    0.0    0.0    0.0     0.0    0.0    16
   1   17  1  1 1 0    0.0238     0.108    0.0286     0     0     0    0 0     0.0     0.0    0.0    0.0    0.0     0.0    0.0    17
   3   15  1  1 1 0    0.0162     0.053    0.0544     0     0     0    0 0     0.0     0.0    0.0    0.0    0.0     0.0    0.0    18
   4   18  1  1 1 1       0.0     0.555       0.0     0     0     0    0 0   0.970     0.0    0.0    0.0    0.0     0.0    0.0    19
   4   18  1  1 1 1       0.0      0.43       0.0     0     0     0    0 0   0.978     0.0    0.0    0.0    0.0     0.0    0.0    20
   5    6  1  1 1 0    0.0302    0.0641    0.0124     0     0     0    0 0     0.0     0.0    0.0    0.0    0.0     0.0    0.0    21
   7    8  1  1 1 0    0.0139    0.0712    0.0194     0     0     0    0 0     0.0     0.0    0.0    0.0    0.0     0.0    0.0    22
  10   12  1  1 1 0    0.0277    0.1262    0.0328     0     0     0    0 0     0.0     0.0    0.0    0.0    0.0     0.0    0.0    23
  11   13  1  1 1 0    0.0223    0.0732    0.0188     0     0     0    0 0     0.0     0.0    0.0    0.0    0.0     0.0    0.0    24
  12   13  1  1 1 0    0.0178     0.058    0.0604     0     0     0    0 0     0.0     0.0    0.0    0.0    0.0     0.0    0.0    25
  12   16  1  1 1 0     0.018    0.0813    0.0216     0     0     0    0 0     0.0     0.0    0.0    0.0    0.0     0.0    0.0    26
  12   17  1  1 1 0    0.0397     0.179    0.0476     0     0     0    0 0     0.0     0.0    0.0    0.0    0.0     0.0    0.0    27
  14   15  1  1 1 0    0.0171    0.0547    0.0148     0     0     0    0 0     0.0     0.0    0.0    0.0    0.0     0.0    0.0    28
  18   19  1  1 1 0     0.461     0.685       0.0     0     0     0    0 0     0.0     0.0    0.0    0.0    0.0     0.0    0.0    29
  19   20  1  1 1 0     0.283     0.434       0.0     0     0     0    0 0     0.0     0.0    0.0    0.0    0.0     0.0    0.0    30
  21   20  1  1 1 1       0.0    0.7767       0.0     0     0     0    0 0   1.043     0.0    0.0    0.0    0.0     0.0    0.0    31
  21   22  1  1 1 0    0.0736     0.117       0.0     0     0     0    0 0     0.0     0.0    0.0    0.0    0.0     0.0    0.0    32
  22   23  1  1 1 0    0.0099    0.0152       0.0     0     0     0    0 0     0.0     0.0    0.0    0.0    0.0     0.0    0.0    33
  23   24  1  1 1 0     0.166     0.256    0.0084     0     0     0    0 0     0.0     0.0    0.0    0.0    0.0     0.0    0.0    34
  24   25  1  1 1 1       0.0     1.182       0.0     0     0     0    0 0   1.000     0.0    0.0    0.0    0.0     0.0    0.0    35
  24   25  1  1 1 1       0.0      1.23       0.0     0     0     0    0 0   1.000     0.0    0.0    0.0    0.0     0.0    0.0    36
  24   26  1  1 1 1       0.0    0.0473       0.0     0     0     0    0 0   1.043     0.0    0.0    0.0    0.0     0.0    0.0    37
  26   27  1  1 1 0     0.165     0.254       0.0     0     0     0    0 0     0.0     0.0    0.0    0.0    0.0     0.0    0.0    38
  27   28  1  1 1 0    0.0618    0.0954       0.0     0     0     0    0 0     0.0     0.0    0.0    0.0    0.0     0.0    0.0    39
  28   29  1  1 1 0    0.0418    0.0587       0.0     0     0     0    0 0     0.0     0.0    0.0    0.0    0.0     0.0    0.0    40
   7   29  1  1 1 1       0.0    0.0648       0.0     0     0     0    0 0   0.967     0.0    0.0    0.0    0.0     0.0    0.0    41
  25   30  1  1 1 0     0.135     0.202       0.0     0     0     0    0 0     0.0     0.0    0.0    0.0    0.0     0.0    0.0    42
  30   31  1  1 1 0     0.326     0.497       0.0     0     0     0    0 0     0.0     0.0    0.0    0.0    0.0     0.0    0.0    43
  31   32  1  1 1 0     0.507     0.755       0.0     0     0     0    0 0     0.0     0.0    0.0    0.0    0.0     0.0    0.0    44
  32   33  1  1 1 0    0.0392     0.036       0.0     0     0     0    0 0     0.0     0.0    0.0    0.0    0.0     0.0    0.0    45
  34   32  1  1 1 1       0.0     0.953       0.0     0     0     0    0 0   0.975     0.0    0.0    0.0    0.0     0.0    0.0    46
  34   35  1  1 1 0     0.052     0.078    0.0032     0     0     0    0 0     0.0     0.0    0.0    0.0    0.0     0.0    0.0    47
  35   36  1  1 1 0     0.043    0.0537    0.0016     0     0     0    0 0     0.0     0.0    0.0    0.0    0.0     0.0    0.0    48
  36   37  1  1 1 0     0.029    0.0366       0.0     0     0     0    0 0     0.0     0.0    0.0    0.0    0.0     0.0    0.0    49
  37   38  1  1 1 0    0.0651    0.1009     0.002     0     0     0    0 0     0.0     0.0    0.0    0.0    0.0     0.0    0.0    50
  37   39  1  1 1 0    0.0239    0.0379       0.0     0     0     0    0 0     0.0     0.0    0.0    0.0    0.0     0.0    0.0    51
  36   40  1  1 1 0      0.03    0.0466       0.0     0     0     0    0 0     0.0     0.0    0.0    0.0    0.0     0.0    0.0    52
  22   38  1  1 1 0    0.0192    0.0295       0.0     0     0     0    0 0     0.0     0.0    0.0    0.0    0.0     0.0    0.0    53
  11   41  1  1 1 1       0.0     0.749       0.0     0     0     0    0 0   0.955     0.0    0.0    0.0    0.0     0.0    0.0    54
  41   42  1  1 1 0     0.207     0.352       0.0     0     0     0    0 0     0.0     0.0    0.0    0.0    0.0     0.0    0.0    55
  41   43  1  1 1 0       0.0     0.412       0.0     0     0     0    0 0     0.0     0.0    0.0    0.0    0.0     0.0    0.0    56
  38   44  1  1 1 0    0.0289    0.0585     0.002     0     0     0    0 0     0.0     0.0    0.0    0.0    0.0     0.0    0.0    57
  15   45  1  1 1 1       0.0    0.1042       0.0     0     0     0    0 0   0.955     0.0    0.0    0.0    0.0     0.0    0.0    58
  14   46  1  1 1 1       0.0    0.0735       0.0     0     0     0    0 0   0.900     0.0    0.0    0.0    0.0     0.0    0.0    59
  46   47  1  1 1 0     0.023     0.068    0.0032     0     0     0    0 0     0.0     0.0    0.0    0.0    0.0     0.0    0.0    60
  47   48  1  1 1 0    0.0182    0.0233       0.0     0     0     0    0 0     0.0     0.0    0.0    0.0    0.0     0.0    0.0    61
  48   49  1  1 1 0    0.0834     0.129    0.0048     0     0     0    0 0     0.0     0.0    0.0    0.0    0.0     0.0    0.0    62
  49   50  1  1 1 0    0.0801     0.128       0.0     0     0     0    0 0     0.0     0.0    0.0    0.0    0.0     0.0    0.0    63
  50   51  1  1 1 0    0.1386      0.22       0.0     0     0     0    0 0     0.0     0.0    0.0    0.0    0.0     0.0    0.0    64
  10   51  1  1 1 1       0.0    0.0712       0.0     0     0     0    0 0   0.930     0.0    0.0    0.0    0.0     0.0    0.0    65
  13   49  1  1 1 1       0.0     0.191       0.0     0     0     0    0 0   0.895     0.0    0.0    0.0    0.0     0.0    0.0    66
  29   52  1  1 1 0    0.1442     0.187       0.0     0     0     0    0 0     0.0     0.0    0.0    0.0    0.0     0.0    0.0    67
  52   53  1  1 1 0    0.0762    0.0984       0.0     0     0     0    0 0     0.0     0.0    0.0    0.0    0.0     0.0    0.0    68
  53   54  1  1 1 0    0.1878     0.232       0.0     0     0     0    0 0     0.0     0.0    0.0    0.0    0.0     0.0    0.0    69
  54   55  1  1 1 0    0.1732    0.2265       0.0     0     0     0    0 0     0.0     0.0    0.0    0.0    0.0     0.0    0.0    70
  11   43  1  1 1 1       0.0     0.153       0.0     0     0     0    0 0   0.958     0.0    0.0    0.0    0.0     0.0    0.0    71
  44   45  1  1 1 0    0.0624    0.1242     0.004     0     0     0    0 0     0.0     0.0    0.0    0.0    0.0     0.0    0.0    72
  40   56  1  1 1 1       0.0     1.195       0.0     0     0     0    0 0   0.958     0.0    0.0    0.0    0.0     0.0    0.0    73
  56   41  1  1 1 0    0.5530     0.549       0.0     0     0     0    0 0     0.0     0.0    0.0    0.0    0.0     0.0    0.0    74
  56   42  1  1 1 0    0.2125     0.354       0.0     0     0     0    0 0     0.0     0.0    0.0    0.0    0.0     0.0    0.0    75
  39   57  1  1 1 1       0.0     1.355       0.0     0     0     0    0 0   0.980     0.0    0.0    0.0    0.0     0.0    0.0    76
  57   56  1  1 1 0     0.174      0.26       0.0     0     0     0    0 0     0.0     0.0    0.0    0.0    0.0     0.0    0.0    77
  38   49  1  1 1 0     0.115     0.177     0.003     0     0     0    0 0     0.0     0.0    0.0    0.0    0.0     0.0    0.0    78
  38   48  1  1 1 0    0.0312    0.0482       0.0     0     0     0    0 0     0.0     0.0    0.0    0.0    0.0     0.0    0.0    79
   9   55  1  1 1 1       0.0    0.1205       0.0     0     0     0    0 0   0.940     0.0    0.0    0.0    0.0     0.0    0.0    80
-999
LOSS ZONES FOLLOWS                    1 ITEMS
  1 IEEE 57-BUS
-99
INTERCHANGE DATA FOLLOWS              1 ITEMS
 1    8 Clinch Rv V1    0.0  999.99  AEP-57  IEEE 57-BUS TEST SYSTEM
-9
TIE LINES FOLLOWS                     0 ITEMS
-999
END OF DATA